151
adamantanone-docked-named-c.pdb
N          1.10300       -4.40100        2.92600
C         -0.13500       -4.57400        3.62200
C         -0.13800       -3.44000        4.68800
N          1.10300       -2.75800        4.48200
C          1.86900       -3.39900        3.51300
N         -1.34100       -4.36500        2.88300
C         -2.08100       -3.31400        3.41300
N         -1.34100       -2.71300        4.42500
O          3.04900       -3.19000        3.29200
O         -3.23500       -3.04800        3.12700
N          1.10000       -0.44300        5.20600
C         -0.12300       -0.00000        5.80000
C         -0.11000        1.54200        5.60700
N          1.11800        1.80400        4.92300
C          1.86100        0.63800        4.76500
N         -1.34000       -0.42200        5.18000
C         -2.07700        0.66600        4.72600
N         -1.32200        1.81800        4.90100
O          3.02700        0.58400        4.41500
O         -3.23800        0.62900        4.35600
N          1.15500       -3.75700       -3.67000
C         -0.06500       -3.80000       -4.41800
C         -0.04700       -2.49400       -5.26300
N          1.18500       -1.86500       -4.90500
C          1.92000       -2.65100       -4.02600
N         -1.28600       -3.72400       -3.68000
C         -2.02100       -2.59800       -4.03700
N         -1.25700       -1.82100       -4.90300
O          3.08300       -2.46700       -3.71300
O         -3.18600       -2.39700       -3.74200
N          1.21300        4.39800       -2.83000
C          0.01500        5.17400       -2.76500
C         -0.01400        5.70000       -1.30400
N          1.18800        5.19700       -0.71600
C          1.93600        4.48300       -1.64600
N         -1.23500        4.50200       -2.92800
C         -2.01700        4.62100       -1.78000
N         -1.25300        5.22300       -0.77800
O          3.08700        4.11400       -1.49000
O         -3.21300        4.39100       -1.70400
N          1.15500        3.85300        3.62600
C         -0.07500        4.58500        3.63400
C         -0.06000        5.38200        2.29700
N          1.18500        5.02300        1.69300
C          1.93100        4.19400        2.52300
N         -1.28700        3.83100        3.57800
C         -2.01700        4.13100        2.43300
N         -1.26000        4.97800        1.63000
O          3.10300        3.90100        2.36500
O         -3.17500        3.80800        2.23300
C          1.74500       -0.74200       -5.60200
C         -1.90100       -1.73500        5.31200
C         -1.80100       -0.69500       -5.61500
C          1.64400       -1.76400        5.36800
N          1.10600       -5.23200        0.65000
C         -0.11500       -5.84200        0.22200
C         -0.10200       -5.68800       -1.32500
N          1.13000       -5.01800       -1.60200
C          1.87000       -4.82500       -0.44000
N         -1.33400       -5.21400        0.62700
C         -2.06700       -4.78000       -0.47100
N         -1.31100       -4.98300       -1.62000
O          3.03500       -4.47100       -0.39400
O         -3.22500       -4.40300       -0.44200
C          1.64100       -5.33900        1.98000
C         -1.88800       -5.30400        1.94700
C         -1.85000       -4.81700       -2.94000
C          1.68600       -4.86000       -2.91800
C          1.67700        3.11800        4.74600
C         -1.85400        3.13400        4.69600
C          1.73200        5.65800        0.52900
C         -1.81000        5.63700        0.47700
N         -1.23500        2.75800       -4.63100
C          0.02200        2.57100       -5.28300
C         -0.00200        1.08700       -5.74900
N         -1.24500        0.57900       -5.26000
C         -2.01800        1.60800       -4.71700
N          1.21700        2.67000       -4.50400
C          1.94400        1.48800       -4.54100
N          1.20200        0.52800       -5.21800
O         -3.21800        1.54500       -4.50400
O          3.09400        1.34900       -4.15900
C         -1.75300        4.02200       -4.18100
C          1.77900        3.90600       -4.04900
H         -0.15700       -5.55700        4.10700
H         -0.16800       -3.86400        5.69900
H         -0.13700       -0.25400        6.86700
H         -0.11600        2.05200        6.57800
H         -0.07300       -4.68100       -5.07100
H         -0.05200       -2.73000       -6.33400
H          0.07900        6.01200       -3.47000
H         -0.00600        6.79700       -1.29400
H         -0.09600        5.27000        4.49000
H         -0.08500        6.46100        2.49300
H          1.58900       -0.88200       -6.67700
H          2.82800       -0.73000       -5.44000
H         -1.76300       -2.07500        6.34500
H         -2.98200       -1.67900        5.14400
H         -2.88400       -0.66900       -5.45700
H         -1.64800       -0.85500       -6.68900
H          2.72900       -1.71900        5.22900
H          1.47400       -2.08900        6.40100
H         -0.12500       -6.90100        0.50400
H         -0.11300       -6.67200       -1.81000
H          1.45900       -6.35400        2.35100
H          2.72800       -5.21200        1.93400
H         -2.97100       -5.15700        1.88800
H         -1.72800       -6.31900        2.32900
H         -1.69200       -5.74300       -3.50400
H         -2.93300       -4.67500       -2.86700
H          2.77000       -4.74000       -2.83000
H          1.51700       -5.78400       -3.48300
H          2.76200        3.02600        4.63400
H          1.50300        3.70000        5.65800
H         -1.69100        3.72700        5.60300
H         -2.93800        3.06200        4.55800
H          1.56700        6.73900        0.60800
H          2.81700        5.50700        0.52000
H         -2.89300        5.47400        0.45800
H         -1.66000        6.71700        0.58700
H          0.09100        3.24000       -6.14900
H          0.01200        1.03200       -6.84400
H         -1.54800        4.77400       -4.95200
H         -2.84200        3.94500       -4.10100
H          2.85800        3.77900       -3.91500
H          1.64800        4.66200       -4.83100
O         -1.22600        1.58300       -1.83100
C          1.63900        0.43700        0.64500
C         -0.03900       -1.44800        0.60200
C          0.43200       -0.12900       -1.48800
C         -0.83000        0.93500        0.45800
C          1.29400       -0.95700        1.18900
C          1.75500        0.36500       -0.89000
C          0.06900       -1.50600       -0.92900
C          0.50900        1.41500        1.02500
C         -1.16200       -0.46700        0.97900
C         -0.63700        0.85200       -1.04500
H          2.58600        0.78200        1.07300
H         -0.27200       -2.44200        0.99200
H          0.47400       -0.15800       -2.57800
H         -1.63500        1.63800        0.69100
H          2.09500       -1.66400        0.94100
H          1.22300       -0.91400        2.27900
H          2.00100        1.35700       -1.28700
H          2.57100       -0.31000       -1.17600
H         -0.88300       -1.84500       -1.35200
H          0.83500       -2.23000       -1.21800
H          0.43800        1.49800        2.11400
H          0.74200        2.40900        0.62900
H         -2.11300       -0.81200        0.55400
H         -1.28400       -0.44100        2.06700
